Circuit: * C:\users\thatiannecarvalho\My Documents\Faculdade\9ºSemestre\MI - PDS\pbl3\3bitsComparator.asc

Limiting rise time of source v1 to 5e-006
Limiting fall time of source v1 to 5e-006
Direct Newton iteration failed to find .op point.  (Use ".option noopiter" to skip.)
Starting Gmin stepping
Gmin = 10
Gmin = 1.07374
Gmin = 0.115292
Gmin = 0.0123794
Gmin = 0.00132923
Gmin = 0.000142725
Gmin = 1.5325e-005
Gmin = 1.6455e-006
Gmin = 1.76685e-007
Gmin = 1.89714e-008
Gmin = 2.03704e-009
Gmin = 2.18725e-010
Gmin = 2.34854e-011
Gmin = 2.52173e-012
Gmin = 2.70769e-013
Gmin = 0
Gmin stepping succeeded in finding the operating point.


Date: Tue Feb 11 12:45:32 2020
Total elapsed time: 1.946 seconds.

tnom = 27
temp = 27
method = modified trap
totiter = 16644
traniter = 16243
tranpoints = 6429
accept = 4981
rejected = 1448
matrix size = 55
fillins = 26
solver = Normal
Thread vector: 57.5/28.1[4] 11.6/6.0[4] 22.2/13.4[4] 1.0/2.5[1]  2592/500
Matrix Compiler1: 4.12 KB object code size  19.5/5.1/[3.9]
Matrix Compiler2: 6.84 KB object code size  2.4/2.2/[0.4]

