Circuit: * C:\users\thatiannecarvalho\My Documents\Faculdade\9ºSemestre\MI - PDS\pbl3\4bitsComparator.asc

WARNING: Less than two connections to node 3.  This node is used by A1.
WARNING: Less than two connections to node 2.  This node is used by A2.
WARNING: Less than two connections to node 1.  This node is used by A3.
Direct Newton iteration failed to find .op point.  (Use ".option noopiter" to skip.)
Starting Gmin stepping
Gmin = 10
Gmin = 1.07374
Gmin = 0.115292
Gmin = 0.0123794
Gmin = 0.00132923
Gmin = 0.000142725
Gmin = 1.5325e-005
Gmin = 1.6455e-006
Gmin = 1.76685e-007
Gmin = 1.89714e-008
Gmin = 2.03704e-009
Gmin = 2.18725e-010
Gmin = 2.34854e-011
Gmin = 2.52173e-012
Gmin = 2.70769e-013
Gmin = 0
Gmin stepping succeeded in finding the operating point.


Date: Fri Feb 14 19:32:01 2020
Total elapsed time: 0.202 seconds.

tnom = 27
temp = 27
method = modified trap
totiter = 2877
traniter = 2463
tranpoints = 1121
accept = 1086
rejected = 35
matrix size = 24
fillins = 6
solver = Normal
Thread vector: 20.6/13.9[2] 2.7/3.5[1] 3.6/3.0[2] 0.4/1.3[1]  2592/500
Matrix Compiler1: 1.22 KB object code size  1.1/0.4/[0.1]
Matrix Compiler2: 2.18 KB object code size  0.6/0.5/[0.3]

