Circuit: * C:\users\thatiannecarvalho\My Documents\Faculdade\9ºSemestre\MI - PDS\pbl3\7dec3bits.asc

WARNING: Node 7 is floating.
WARNING: Node 6 is floating.
WARNING: Node 5 is floating.
WARNING: Node 3 is floating.
WARNING: Node 2 is floating.

WARNING: Less than two connections to node 5.  This node is used by A1.
WARNING: Less than two connections to node A.  This node is used by A1.
WARNING: Less than two connections to node 3.  This node is used by A2.
WARNING: Less than two connections to node B.  This node is used by A2.
WARNING: Less than two connections to node 2.  This node is used by A3.
WARNING: Less than two connections to node C.  This node is used by A3.
Direct Newton iteration for .op point succeeded.

Date: Tue Feb 11 01:42:31 2020
Total elapsed time: 0.138 seconds.

tnom = 27
temp = 27
method = modified trap
totiter = 2086
traniter = 2082
tranpoints = 1042
accept = 1042
rejected = 0
matrix size = 10
fillins = 0
solver = Normal
Matrix Compiler1: 148 bytes object code size  0.2/0.1/[0.1]
Matrix Compiler2: 408 bytes object code size  0.1/0.2/[0.1]

