Circuit: * C:\users\thatiannecarvalho\My Documents\Faculdade\9ºSemestre\MI - PDS\pbl3\circuit.asc

Limiting rise time of source v:x3:4 to 1.5e-005
Limiting fall time of source v:x3:4 to 1.5e-005
Limiting rise time of source v:x2:4 to 1.5e-005
Limiting fall time of source v:x2:4 to 1.5e-005
Limiting rise time of source v:x1:4 to 1.5e-005
Limiting fall time of source v:x1:4 to 1.5e-005
Limiting rise time of source v2 to 1.5e-005
Limiting fall time of source v2 to 1.5e-005
WARNING: Less than two connections to node X1:N004.  This node is used by V:X1:1.
WARNING: Less than two connections to node X1:N001.  This node is used by V:X1:4.
WARNING: Less than two connections to node X1:X3:X1:N009.  This node is used by V:X1:X3:X1:1.
WARNING: Less than two connections to node X1:X4:N001.  This node is used by V:X1:X4:1.
WARNING: Less than two connections to node X1:X4:N006.  This node is used by V:X1:X4:2.
WARNING: Less than two connections to node X2:N004.  This node is used by V:X2:1.
WARNING: Less than two connections to node X2:N001.  This node is used by V:X2:4.
WARNING: Less than two connections to node X2:X3:X1:N009.  This node is used by V:X2:X3:X1:1.
WARNING: Less than two connections to node X2:X4:N001.  This node is used by V:X2:X4:1.
WARNING: Less than two connections to node X2:X4:N006.  This node is used by V:X2:X4:2.
WARNING: Less than two connections to node X3:N004.  This node is used by V:X3:1.
WARNING: Less than two connections to node X3:N001.  This node is used by V:X3:4.
WARNING: Less than two connections to node X3:X3:X1:N009.  This node is used by V:X3:X3:X1:1.
WARNING: Less than two connections to node X3:X4:N001.  This node is used by V:X3:X4:1.
WARNING: Less than two connections to node X3:X4:N006.  This node is used by V:X3:X4:2.
WARNING: Less than two connections to node X5:X1:N009.  This node is used by V:X5:X1:1.
Direct Newton iteration failed to find .op point.  (Use ".option noopiter" to skip.)
Starting Gmin stepping
Gmin = 10
Gmin = 1.07374
Gmin = 0.115292
Gmin = 0.0123794
Gmin = 0.00132923
Gmin = 0.000142725
vernier = 0.5
vernier = 0.25
vernier = 0.125
vernier = 0.0625
vernier = 0.03125
Gmin = 0.00013835
vernier = 0.0416667
vernier = 0.0555555
Gmin = 0.000123773
vernier = 0.074074
vernier = 0.0987653
Gmin = 0.000103812
vernier = 0.131687
Gmin = 7.81531e-005
vernier = 0.175583
vernier = 0.23411
Gmin = 4.92981e-005
vernier = 0.312147
vernier = 0.416196
Gmin = 2.39847e-005
vernier = 0.554928
Gmin = 7.63633e-006
vernier = 0.739903
vernier = 0.986537
Gmin = 1.25023e-006
vernier = 1
vernier = 0.5
Gmin = 2.90064e-007
vernier = 0.666667
vernier = 0.333333
vernier = 0.166667
Gmin = 1.06036e-007
vernier = 0.0833333
vernier = 0.0416667
vernier = 0.0208333
vernier = 0.0104167
vernier = 0.00520833
vernier = 0.00260417
vernier = 0.00130208
vernier = 0.000651042
vernier = 0.000488281
Gmin = 0
Gmin = 0
Gmin stepping failed

Starting source stepping with srcstepmethod=0
Source Step = 3.0303%
Source Step = 9.09979%
Starting source stepping with srcstepmethod=1
Source Step = 3.0303%
vernier = 0.25
Source stepping failed

Pseudo Transient succeeded in finding the operating point at 27.2873 s.
Heightened Def Con from 0.0780522 to 0.0780522
Heightened Def Con from 0.865828 to 0.865828

Date: Mon Mar 09 16:08:06 2020
Total elapsed time: 70.589 seconds.

tnom = 27
temp = 27
method = modified trap
totiter = 272799
traniter = 262176
tranpoints = 93816
accept = 68450
rejected = 25417
matrix size = 314
fillins = 616
solver = Normal
Thread vector: 212.4/120.6[4] 57.1/17.9[4] 38.1/20.5[4] 4.4/3.7[3]  2592/500
Matrix Compiler1: 46.30 KB object code size  54.3/18.9/[7.2]
Matrix Compiler2: 37.50 KB object code size  14.6/14.7/[2.7]

