Circuit: * C:\users\thatiannecarvalho\My Documents\Faculdade\9ºSemestre\MI - PDS\pbl3\circuit.asc

Limiting rise time of source v:x3:4 to 1.5e-005
Limiting fall time of source v:x3:4 to 1.5e-005
Limiting rise time of source v:x2:4 to 1.5e-005
Limiting fall time of source v:x2:4 to 1.5e-005
Limiting rise time of source v:x1:4 to 1.5e-005
Limiting fall time of source v:x1:4 to 1.5e-005
Limiting rise time of source v2 to 1.5e-005
Limiting fall time of source v2 to 1.5e-005
WARNING: Less than two connections to node X1:N004.  This node is used by V:X1:1.
WARNING: Less than two connections to node X1:N001.  This node is used by V:X1:4.
WARNING: Less than two connections to node X1:X3:X1:N009.  This node is used by V:X1:X3:X1:1.
WARNING: Less than two connections to node X2:N004.  This node is used by V:X2:1.
WARNING: Less than two connections to node X2:N001.  This node is used by V:X2:4.
WARNING: Less than two connections to node X2:X3:X1:N009.  This node is used by V:X2:X3:X1:1.
WARNING: Less than two connections to node X3:N004.  This node is used by V:X3:1.
WARNING: Less than two connections to node X3:N001.  This node is used by V:X3:4.
WARNING: Less than two connections to node X3:X3:X1:N009.  This node is used by V:X3:X3:X1:1.
WARNING: Less than two connections to node X5:X1:N009.  This node is used by V:X5:X1:1.
Direct Newton iteration failed to find .op point.  (Use ".option noopiter" to skip.)
Starting Gmin stepping
Gmin = 10
Gmin = 1.07374
Gmin = 0.115292
Gmin = 0.0123794
Gmin = 0.00132923
Gmin = 0.000142725
Gmin = 1.5325e-005
Gmin = 1.6455e-006
vernier = 0.5
vernier = 0.25
vernier = 0.125
Gmin = 4.31359e-007
vernier = 0.0625
vernier = 0.03125
vernier = 0.015625
vernier = 0.0078125
vernier = 0.00390625
vernier = 0.00195313
vernier = 0.000976563
vernier = 0.000488281
Gmin = 0
Gmin stepping failed

Starting source stepping with srcstepmethod=0
Source Step = 3.0303%
Source Step = 9.09979%
Starting source stepping with srcstepmethod=1
Source Step = 3.0303%
vernier = 0.25
Source stepping failed

Pseudo Transient succeeded in finding the operating point at 33.7034 s.
Heightened Def Con from 0.881422 to 0.881422
Heightened Def Con from 1.08326 to 1.08326
Heightened Def Con from 1.48985 to 1.48985

Date: Fri Feb 28 16:58:22 2020
Total elapsed time: 66.535 seconds.

tnom = 27
temp = 27
method = modified trap
totiter = 297106
traniter = 287174
tranpoints = 109568
accept = 80689
rejected = 28928
matrix size = 302
fillins = 679
solver = Normal
Thread vector: 213.8/115.5[4] 43.3/18.7[4] 37.8/16.4[4] 4.5/3.5[4]  2592/500
Matrix Compiler1: 51.39 KB object code size  47.9/15.8/[6.6]
Matrix Compiler2: 38.24 KB object code size  15.2/14.2/[2.5]

