Circuit: * C:\users\thatiannecarvalho\My Documents\Faculdade\9ºSemestre\MI - PDS\pbl3\circuit.asc

Limiting rise time of source v:x4:4 to 0.0005
Limiting fall time of source v:x4:4 to 0.0005
Limiting rise time of source v:x3:4 to 0.0005
Limiting fall time of source v:x3:4 to 0.0005
Limiting rise time of source v:x2:4 to 0.0005
Limiting fall time of source v:x2:4 to 0.0005
Limiting rise time of source v:x1:4 to 0.0005
Limiting fall time of source v:x1:4 to 0.0005
Limiting rise time of source v2 to 0.0005
Limiting fall time of source v2 to 0.0005
WARNING: Less than two connections to node X1:NC_01.  This node is used by V:X1:1.
WARNING: Less than two connections to node X1:NC_02.  This node is used by V:X1:4.
WARNING: Less than two connections to node X1:X3:X1:N009.  This node is used by V:X1:X3:X1:1.
WARNING: Less than two connections to node X2:NC_01.  This node is used by V:X2:1.
WARNING: Less than two connections to node X2:NC_02.  This node is used by V:X2:4.
WARNING: Less than two connections to node X2:X3:X1:N009.  This node is used by V:X2:X3:X1:1.
WARNING: Less than two connections to node X3:NC_01.  This node is used by V:X3:1.
WARNING: Less than two connections to node X3:NC_02.  This node is used by V:X3:4.
WARNING: Less than two connections to node X3:X3:X1:N009.  This node is used by V:X3:X3:X1:1.
WARNING: Less than two connections to node X4:NC_01.  This node is used by V:X4:1.
WARNING: Less than two connections to node X4:NC_02.  This node is used by V:X4:4.
WARNING: Less than two connections to node X4:X3:X1:N009.  This node is used by V:X4:X3:X1:1.
WARNING: Less than two connections to node X5:X1:N009.  This node is used by V:X5:X1:1.
WARNING: Less than two connections to node 2.  This node is used by A:X5:X2:1.
WARNING: Less than two connections to node 1.  This node is used by A:X5:X2:2.
Direct Newton iteration failed to find .op point.  (Use ".option noopiter" to skip.)
Starting Gmin stepping
Gmin = 10
Gmin = 1.07374
Gmin = 0.115292
Gmin = 0.0123794
Gmin = 0.00132923
Gmin = 0.000142725
Gmin = 1.5325e-005
Gmin = 1.6455e-006
vernier = 0.5
vernier = 0.25
vernier = 0.125
Gmin = 4.31359e-007
vernier = 0.0625
vernier = 0.03125
vernier = 0.015625
vernier = 0.0208333
Gmin = 4.1866e-007
vernier = 0.0277778
Gmin = 3.93372e-007
vernier = 0.037037
vernier = 0.0493827
Gmin = 3.54382e-007
vernier = 0.0658435
vernier = 0.0877914
Gmin = 3.00201e-007
vernier = 0.117055
Gmin = 2.31493e-007
vernier = 0.156073
vernier = 0.208098
Gmin = 1.50209e-007
vernier = 0.277464
vernier = 0.369952
Gmin = 7.60417e-008
vernier = 0.493269
Gmin = 2.65687e-008
vernier = 0.657691
vernier = 0.876922
Gmin = 4.82351e-009
vernier = 1
vernier = 0.5
vernier = 0.25
vernier = 0.125
vernier = 0.0625
vernier = 0.03125
vernier = 0.015625
vernier = 0.0078125
Gmin = 3.24483e-009
vernier = 0.00390625
vernier = 0.00195313
vernier = 0.000976563
vernier = 0.000488281
Gmin = 0
Gmin stepping failed

Starting source stepping with srcstepmethod=0
Source Step = 3.0303%
Source Step = 9.09979%
Starting source stepping with srcstepmethod=1
Source Step = 3.0303%
vernier = 0.25
Source stepping failed

Pseudo Transient succeeded in finding the operating point at 36.8844 s.
Heightened Def Con from 0.292196 to 0.292196
Heightened Def Con from 0.521291 to 0.521291
Heightened Def Con from 0.568216 to 0.568216
Heightened Def Con from 0.590382 to 0.590382
Heightened Def Con from 0.710271 to 0.710271
Heightened Def Con from 0.717719 to 0.717719
Heightened Def Con from 0.723764 to 0.723764
Heightened Def Con from 0.733243 to 0.733243
Heightened Def Con from 0.888242 to 0.888242
Heightened Def Con from 1.0012 to 1.0012
Heightened Def Con from 1.00882 to 1.00882
Heightened Def Con from 1.01418 to 1.01418

Date: Fri Feb 28 10:30:57 2020
Total elapsed time: 72.175 seconds.

tnom = 27
temp = 27
method = modified trap
totiter = 195228
traniter = 178955
tranpoints = 52428
accept = 37483
rejected = 15188
matrix size = 338
fillins = 940
solver = Normal
Thread vector: 280.5/207.2[4] 62.6/28.3[4] 51.3/19.4[4] 4.5/3.7[3]  2592/500
Matrix Compiler1: 95.75 KB object code size  76.4/28.3/[10.5]
Matrix Compiler2: 45.53 KB object code size  15.9/15.2/[2.8]

