Circuit: * C:\Users\ftiti\Desktop\conversor-A-D-pipeline-master\circuit.asc

Limiting rise time of source v:x3:4 to 1.5e-05
Limiting fall time of source v:x3:4 to 1.5e-05
Limiting rise time of source v:x2:4 to 1.5e-05
Limiting fall time of source v:x2:4 to 1.5e-05
Limiting rise time of source v:x1:4 to 1.5e-05
Limiting fall time of source v:x1:4 to 1.5e-05
Limiting rise time of source v2 to 1.5e-05
Limiting fall time of source v2 to 1.5e-05
WARNING: Less than two connections to node X1:N012.  This node is used by V:X1:1.
WARNING: Less than two connections to node X1:N004.  This node is used by V:X1:4.
WARNING: Less than two connections to node X1:X3:X1:N009.  This node is used by V:X1:X3:X1:1.
WARNING: Less than two connections to node X2:N012.  This node is used by V:X2:1.
WARNING: Less than two connections to node X2:N004.  This node is used by V:X2:4.
WARNING: Less than two connections to node X2:X3:X1:N009.  This node is used by V:X2:X3:X1:1.
WARNING: Less than two connections to node X3:N012.  This node is used by V:X3:1.
WARNING: Less than two connections to node X3:N004.  This node is used by V:X3:4.
WARNING: Less than two connections to node X3:X3:X1:N009.  This node is used by V:X3:X3:X1:1.
WARNING: Less than two connections to node X5:X1:N009.  This node is used by V:X5:X1:1.
Direct Newton iteration failed to find .op point.  (Use ".option noopiter" to skip.)
Starting Gmin stepping
Gmin = 10
Gmin = 1.07374
Gmin = 0.115292
Gmin = 0.0123794
Gmin = 0.00132923
Gmin = 0.000142725
vernier = 0.5
vernier = 0.666667
Gmin = 4.98766e-05
vernier = 0.888888
vernier = 1
Gmin = 7.53781e-06
Gmin = 8.09366e-07
vernier = 0.5
Gmin = 2.2996e-07
vernier = 0.666667
vernier = 0.888888
vernier = 0.444444
vernier = 0.222222
Gmin = 7.46142e-08
vernier = 0.111111
vernier = 0.0555555
vernier = 0.0277778
vernier = 0.0138889
vernier = 0.00694444
vernier = 0.00347222
vernier = 0.00173611
vernier = 0.000868055
vernier = 0.000434028
Gmin = 0
Gmin = 0
Gmin stepping failed

Starting source stepping with srcstepmethod=0
Source Step = 3.0303%
vernier = 0.25
Source Step = 0.0177557%
Starting source stepping with srcstepmethod=1
Source Step = 3.0303%
vernier = 0.25
Source stepping failed

Pseudo Transient succeeded in finding the operating point at 25.5097 s.
Heightened Def Con from 1.38608 to 1.38608

Date: Tue Mar 10 00:42:26 2020
Total elapsed time: 36.481 seconds.

tnom = 27
temp = 27
method = modified trap
totiter = 222142
traniter = 207901
tranpoints = 88116
accept = 65054
rejected = 23218
matrix size = 344
fillins = 874
solver = Normal
Thread vector: 159.2/65.1[8] 62.3/26.3[8] 19.2/11.6[8] 2.1/1.6[5]  2592/500
Matrix Compiler1: 71.97 KB object code size  48.8/28.1/[12.0]
Matrix Compiler2: 45.29 KB object code size  10.1/20.2/[4.0]

