Circuit: * C:\users\thatiannecarvalho\My Documents\Faculdade\9ºSemestre\MI - PDS\pbl3\circuit.asc

Limiting rise time of source v4 to 0.0005
Limiting fall time of source v4 to 0.0005
WARNING: Less than two connections to node X3:X1:N009.  This node is used by V:X3:X1:1.
Direct Newton iteration failed to find .op point.  (Use ".option noopiter" to skip.)
Starting Gmin stepping
Gmin = 10
Gmin = 1.07374
Gmin = 0.115292
Gmin = 0.0123794
Gmin = 0.00132923
Gmin = 0.000142725
Gmin = 1.5325e-005
Gmin = 1.6455e-006
vernier = 0.5
vernier = 0.25
vernier = 0.125
Gmin = 4.31359e-007
vernier = 0.0625
vernier = 0.03125
vernier = 0.015625
vernier = 0.0208333
Gmin = 4.1866e-007
vernier = 0.0277778
Gmin = 3.93372e-007
vernier = 0.037037
vernier = 0.0493827
Gmin = 3.54382e-007
vernier = 0.0658435
vernier = 0.0877914
Gmin = 3.00201e-007
vernier = 0.117055
Gmin = 2.31493e-007
vernier = 0.156073
vernier = 0.208098
Gmin = 1.50209e-007
vernier = 0.277464
vernier = 0.369952
Gmin = 7.60417e-008
vernier = 0.493269
Gmin = 2.65687e-008
vernier = 0.657691
vernier = 0.876922
Gmin = 4.82351e-009
vernier = 1
vernier = 0.5
vernier = 0.25
vernier = 0.125
vernier = 0.0625
vernier = 0.03125
vernier = 0.015625
vernier = 0.0078125
Gmin = 3.24483e-009
vernier = 0.00390625
vernier = 0.00195313
vernier = 0.000976563
vernier = 0.000488281
Gmin = 0
Gmin stepping failed

Starting source stepping with srcstepmethod=0
Source Step = 3.0303%
Source Step = 9.09979%
Starting source stepping with srcstepmethod=1
Source Step = 3.0303%
vernier = 0.25
Source stepping failed

Pseudo Transient succeeded in finding the operating point at 37.1254 s.

Date: Tue Feb 18 15:33:24 2020
Total elapsed time: 3.154 seconds.

tnom = 27
temp = 27
method = modified trap
totiter = 33954
traniter = 21761
tranpoints = 9401
accept = 6269
rejected = 3250
matrix size = 65
fillins = 47
solver = Normal
Thread vector: 59.7/24.0[4] 10.6/6.1[4] 13.8/7.2[4] 0.9/2.7[1]  2592/500
Matrix Compiler1: 5.54 KB object code size  5.6/1.7/[1.1]
Matrix Compiler2: 6.55 KB object code size  2.7/2.6/[0.5]

