Circuit: * C:\users\thatiannecarvalho\My Documents\Faculdade\9ºSemestre\MI - PDS\pbl3\DAC.asc

Direct Newton iteration for .op point succeeded.

Date: Mon Mar 09 15:28:12 2020
Total elapsed time: 0.114 seconds.

tnom = 27
temp = 27
method = modified trap
totiter = 2110
traniter = 2088
tranpoints = 1045
accept = 1045
rejected = 0
matrix size = 14
fillins = 4
solver = Normal
Matrix Compiler1: 720 bytes object code size  0.6/0.2/[0.1]
Matrix Compiler2: 1.21 KB object code size  0.2/0.3/[0.1]

