Circuit: * C:\users\thatiannecarvalho\My Documents\Faculdade\9ºSemestre\MI - PDS\pbl3\stage.asc

Limiting rise time of source v4 to 1.5e-005
Limiting fall time of source v4 to 1.5e-005
WARNING: Less than two connections to node X3:X1:N009.  This node is used by V:X3:X1:1.
Direct Newton iteration failed to find .op point.  (Use ".option noopiter" to skip.)
Starting Gmin stepping
Gmin = 10
Gmin = 1.07374
Gmin = 0.115292
Gmin = 0.0123794
Gmin = 0.00132923
Gmin = 0.000142725
Gmin = 1.5325e-005
Gmin = 1.6455e-006
vernier = 0.5
vernier = 0.25
vernier = 0.125
Gmin = 4.31359e-007
vernier = 0.0625
vernier = 0.03125
vernier = 0.015625
vernier = 0.0078125
vernier = 0.00390625
vernier = 0.00195313
vernier = 0.000976563
vernier = 0.000488281
Gmin = 0
Gmin stepping failed

Starting source stepping with srcstepmethod=0
Source Step = 3.0303%
vernier = 0.25
Source Step = 0.0177557%
Starting source stepping with srcstepmethod=1
Source Step = 3.0303%
vernier = 0.25
Source stepping failed

Pseudo Transient succeeded in finding the operating point at 30.5411 s.

Date: Fri Feb 28 16:46:16 2020
Total elapsed time: 11.161 seconds.

tnom = 27
temp = 27
method = modified trap
totiter = 136956
traniter = 128672
tranpoints = 61173
accept = 45794
rejected = 15391
matrix size = 83
fillins = 76
solver = Normal
Thread vector: 41.8/26.3[4] 12.0/5.9[4] 9.6/4.6[4] 1.1/3.8[1]  2592/500
Matrix Compiler1: 8.00 KB object code size  7.8/2.4/[1.3]
Matrix Compiler2: 8.65 KB object code size  3.0/2.7/[0.6]

